$# LS-DYNA Keyword file created by LS-PrePost(R) V4.6.17 - 11Sep2019
$# Created on Apr-28-2023 (16:25:56)
*KEYWORD
*TITLE
$#                                                                         title
rigid bar impacting aluminum (typ 14 contact)
*CONTROL_CONTACT
$#  slsfac    rwpnal    islchk    shlthk    penopt    thkchg     orien    enmass
       0.0       0.0         0         0         0         0         0         0
$#  usrstr    usrfrc     nsbcs    interm     xpene     ssthk      ecdt   tiedprj
         0         0         0         0       0.0         0         0         0
$#   sfric     dfric       edc       vfc        th     th_sf    pen_sf      
       0.0       0.0       0.0       0.0       0.0       0.0       0.0
$#  ignore    frceng   skiprwg    outseg   spotstp   spotdel   spothin       
         0         0         0         0         0         0       0.0
$#    isym    nserod    rwgaps    rwgdth     rwksf      icov    swradf    ithoff
         0         0         1       0.0       1.0         0       0.0         0
$#  shledg    pstiff    ithcnt    tdcnof     ftall    unused    shltrw      
         0         0         0         0         0                 0.0
*CONTROL_CPU
$#  cputim      
       0.0
*CONTROL_DAMPING
$#  nrcyck     drtol    drfctr    drterm    tssfdr    irelal     edttl    idrflg
         0       0.0       0.0       0.0       0.0         0       0.0         0
*CONTROL_ENERGY
$#    hgen      rwen    slnten     rylen     
         1         2         1         1
*CONTROL_OUTPUT
$#   npopt    neecho    nrefup    iaccop     opifs    ipnint    ikedit    iflush
         0         0         0         0       0.0         0         0      5000
$#   iprtf    ierode   tet10s8    msgmax    ipcurv      gmdt   ip1dblt      eocs
         0         0         2        50         0       0.0         0         0
$#   tolev    newleg    frfreq     minfo    solsig    msgflg    cdetol      
         2         0         1         0         0         0      10.0
$# phschng    demden   icrfile   spc2bnd         -    shlsig      
         0         0         0         0         0         0
*CONTROL_SHELL
$#  wrpang     esort     irnxx    istupd    theory       bwc     miter      proj
       0.0         0         0         0         2         2         1         0
$# rotascl    intgrd    lamsht    cstyp6    thshel      
       1.0         0         0         1         0
$# psstupd   sidt4tu     cntco    itsflg    irquad    w-mode   stretch      icrq
         0         0         0         0         2       0.0       0.0         0
$#  nfail1    nfail4   psnfail    keepcs     delfr   drcpsid    drcprm   intperr
         0         0         0         0         0         0       1.0         0
*CONTROL_TERMINATION
$#  endtim    endcyc     dtmin    endeng    endmas     nosol     
7.00000E-4         0       0.0       0.0       0.0         0
*CONTROL_TIMESTEP
$#  dtinit    tssfac      isdo    tslimt     dt2ms      lctm     erode     ms1st
       0.0       0.9         0       0.0       0.0         0         0         0
$#  dt2msf   dt2mslc     imscl    unused    unused     rmscl     
       0.0         0         0                           0.0
*DATABASE_MATSUM
$#      dt    binary      lcur     ioopt     
7.00000E-6         0         0         1
*DATABASE_BINARY_D3PLOT
$#      dt      lcdt      beam     npltc    psetid      
2.00000E-5         0         0         0         0
*DATABASE_BINARY_D3THDT
$#      dt      lcdt      beam     npltc    psetid      
      10.0         0         0         0         0
*DATABASE_EXTENT_BINARY
$#   neiph     neips    maxint    strflg    sigflg    epsflg    rltflg    engflg
         0         0         0         0         1         1         1         1
$#  cmpflg    ieverp    beamip     dcomp      shge     stssz    n3thdt   ialemat
         0         0         0         1         1         1         2         1
$ INTERFACE NAME: 1          $$$
*CONTACT_ERODING_SURFACE_TO_SURFACE
$#     cid                                                                 title
$#    ssid      msid     sstyp     mstyp    sboxid    mboxid       spr       mpr
         1         2         2         2         0         0         0         0
$#      fs        fd        dc        vc       vdc    penchk        bt        dt
       0.0       0.0       0.0       0.0       0.0         0       0.0       0.0
$#     sfs       sfm       sst       mst      sfst      sfmt       fsf       vsf
       0.0       0.0       0.0       0.0       0.0       0.0       1.0       1.0
$#    isym    erosop      iadj    
         1         1         0
*SET_PART_LIST
$#     sid       da1       da2       da3       da4    solver      
         1       0.0       0.0       0.0       0.0MECH
$#    pid1      pid2      pid3      pid4      pid5      pid6      pid7      pid8
         2         0         0         0         0         0         0         0
*SET_PART_LIST
$#     sid       da1       da2       da3       da4    solver      
         2       0.0       0.0       0.0       0.0MECH
$#    pid1      pid2      pid3      pid4      pid5      pid6      pid7      pid8
         1         0         0         0         0         0         0         0
*PART
$#                                                                         title
                                                                                
$#     pid     secid       mid     eosid      hgid      grav    adpopt      tmid
         1         1         1         0         0         0         0         0
*SECTION_SOLID
$#   secid    elform       aet   
         1         0         0
*MAT_RIGID
$#     mid        ro         e        pr         n    couple         m     alias
         17.73300E-42.900000E7       0.3       0.0       0.0       0.0          
$#     cmo      con1      con2    
       0.0         0         0
$#lco or a1        a2        a3        v1        v2        v3  
       0.0       0.0       0.0       0.0       0.0       0.0
*PART
$#                                                                         title
                                                                                
$#     pid     secid       mid     eosid      hgid      grav    adpopt      tmid
         2         2         2         0         0         0         0         0
*SECTION_SOLID
$#   secid    elform       aet   
         2         0         0
*MAT_SIMPLIFIED_JOHNSON_COOK
$#     mid        ro         e        pr        vp  
         23.00000E-41.000000E7       0.2       0.0
$#       a         b         n         c    psfail    sigmax    sigsat      epso
       0.0       0.0       0.0       0.01.00000E171.00000E281.00000E28       1.0
*INITIAL_VELOCITY_NODE
$#     nid        vx        vy        vz       vxr       vyr       vzr      icid
         1       0.0  -11124.0       0.0       0.0       0.0       0.0         0
         2       0.0  -11124.0       0.0       0.0       0.0       0.0         0
         3       0.0  -11124.0       0.0       0.0       0.0       0.0         0
         4       0.0  -11124.0       0.0       0.0       0.0       0.0         0
         5       0.0  -11124.0       0.0       0.0       0.0       0.0         0
         6       0.0  -11124.0       0.0       0.0       0.0       0.0         0
         7       0.0  -11124.0       0.0       0.0       0.0       0.0         0
         8       0.0  -11124.0       0.0       0.0       0.0       0.0         0
         9       0.0  -11124.0       0.0       0.0       0.0       0.0         0
        10       0.0  -11124.0       0.0       0.0       0.0       0.0         0
        11       0.0  -11124.0       0.0       0.0       0.0       0.0         0
        12       0.0  -11124.0       0.0       0.0       0.0       0.0         0
        13       0.0  -11124.0       0.0       0.0       0.0       0.0         0
        14       0.0  -11124.0       0.0       0.0       0.0       0.0         0
        15       0.0  -11124.0       0.0       0.0       0.0       0.0         0
        16       0.0  -11124.0       0.0       0.0       0.0       0.0         0
        17       0.0  -11124.0       0.0       0.0       0.0       0.0         0
        18       0.0  -11124.0       0.0       0.0       0.0       0.0         0
        19       0.0  -11124.0       0.0       0.0       0.0       0.0         0
        20       0.0  -11124.0       0.0       0.0       0.0       0.0         0
$ ... 8505 like lines cut
*SET_SEGMENT
$
$ Slave segments, surface:   1
$
$#     sid       da1       da2       da3       da4    solver      
         1       0.0       0.0       0.0       0.0MECH
*SET_SEGMENT
$
$ Master segments, surface:   1
$
$#     sid       da1       da2       da3       da4    solver      
         2       0.0       0.0       0.0       0.0MECH
*ELEMENT_SOLID
$#   eid     pid      n1      n2      n3      n4      n5      n6      n7      n8
       1       1     106     107     112     111       1       2       7       6
       2       1     107     108     113     112       2       3       8       7
       3       1     108     109     114     113       3       4       9       8
       4       1     109     110     115     114       4       5      10       9
       5       1     111     112     117     116       6       7      12      11
       6       1     112     113     118     117       7       8      13      12
       7       1     113     114     119     118       8       9      14      13
       8       1     114     115     120     119       9      10      15      14
       9       1     116     117     122     121      11      12      17      16
      10       1     117     118     123     122      12      13      18      17
      11       1     118     119     124     123      13      14      19      18
      12       1     119     120     125     124      14      15      20      19
      13       1     121     122     127     126      16      17      22      21
      14       1     122     123     128     127      17      18      23      22
      15       1     123     124     129     128      18      19      24      23
      16       1     124     125     130     129      19      20      25      24
      17       1     126     127     132     131      21      22      27      26
      18       1     127     128     133     132      22      23      28      27
      19       1     128     129     134     133      23      24      29      28
      20       1     129     130     135     134      24      25      30      29
$ ... 7159 like lines cut
*NODE
$#   nid               x               y               z      tc      rc  
       1             0.0             0.1             0.0       6       7
       2          0.1875          0.1375             0.0       3       4
       3           0.375           0.175             0.0       3       4
       4       0.5625001          0.2125             0.0       3       4
       5       0.7500001            0.25             0.0       3       4
       6             0.0           0.595             0.0       6       7
       7          0.1875        0.630625             0.0       3       4
       8           0.375         0.66625   -1.189056e-16       3       4
       9       0.5625001        0.701875             0.0       3       4
      10       0.7500001          0.7375             0.0       3       4
      11   -2.438826e-17            1.09    2.438826e-17       6       7
      12          0.1875         1.12375    7.831833e-17       3       4
      13           0.375          1.1575    8.946638e-17       3       4
      14       0.5625001         1.19125   -7.359809e-17       3       4
      15       0.7500001           1.225             0.0       3       4
      16             0.0           1.585             0.0       6       7
      17          0.1875        1.616875   -6.002714e-17       3       4
      18           0.375         1.64875   -1.189056e-16       3       4
      19       0.5625001        1.680625    5.887847e-17       3       4
      20       0.7500001          1.7125             0.0       3       4
$ ... 8505 like lines cut
*END
